Version 4
SHEET 1 1820 680
WIRE 544 -512 416 -512
WIRE 704 -512 544 -512
WIRE 416 -496 416 -512
WIRE 704 -480 704 -512
WIRE 800 -416 768 -416
WIRE 800 -400 768 -400
WIRE 416 -384 416 -416
WIRE 544 -384 544 -512
WIRE 800 -368 800 -400
WIRE 704 -320 704 -336
WIRE 704 -304 704 -320
WIRE 416 -272 416 -304
WIRE 544 -272 544 -304
WIRE 800 -240 768 -240
WIRE 800 -224 768 -224
WIRE 800 -192 800 -224
WIRE 416 -160 416 -192
WIRE 544 -160 544 -192
WIRE 704 -144 704 -160
WIRE 704 -128 704 -144
WIRE 1008 -128 1008 -160
WIRE 1008 -128 976 -128
WIRE 1040 -128 1008 -128
WIRE 976 -96 976 -128
WIRE 1040 -96 1040 -128
WIRE 800 -64 768 -64
WIRE 416 -48 416 -80
WIRE 800 -48 768 -48
WIRE 800 -16 800 -48
WIRE 976 16 976 -16
WIRE 1008 16 976 16
WIRE 1040 16 1040 -32
WIRE 1040 16 1008 16
WIRE 416 48 416 32
WIRE 544 48 544 -96
WIRE 704 48 704 16
WIRE 704 48 544 48
WIRE 1008 48 1008 16
WIRE 416 64 416 48
WIRE 544 64 544 48
WIRE 416 160 416 144
WIRE 544 160 544 144
WIRE 544 160 416 160
WIRE 1008 160 1008 128
FLAG 416 160 0
FLAG 704 -144 Nb
FLAG 704 48 Na
FLAG 704 -320 Nc
FLAG 704 -512 Nd
FLAG 416 48 Ndc
FLAG 1008 -160 T
FLAG 800 -16 0
FLAG 800 -368 0
FLAG 800 -192 0
FLAG 800 -416 T
FLAG 800 -240 T
FLAG 800 -64 T
FLAG 1008 160 0
SYMBOL voltage 416 48 R0
WINDOW 0 0 24 Bottom 1
WINDOW 3 0 88 Top 1
SYMATTR InstName V
SYMATTR Value PWL(0 0 1 3 2 0)
SYMBOL res 400 -64 R0
WINDOW 0 16 24 Bottom 1
WINDOW 3 16 88 Top 1
SYMATTR InstName R_fg
SYMATTR Value 50
SYMBOL ind 400 -176 R0
WINDOW 0 16 16 Bottom 1
WINDOW 3 16 96 Top 1
SYMATTR InstName L_ext
SYMATTR Value 10m
SYMBOL res 400 -288 R0
WINDOW 0 16 24 Bottom 1
WINDOW 3 16 88 Top 1
SYMATTR InstName R_ext
SYMATTR Value 1.15
SYMBOL ind 400 -400 R0
WINDOW 0 16 16 Bottom 1
WINDOW 3 16 96 Top 1
SYMATTR InstName L_mid
SYMATTR Value 10m
SYMBOL ind 528 -288 R0
WINDOW 0 16 16 Bottom 1
WINDOW 3 16 96 Top 1
SYMATTR InstName L_rad
SYMATTR Value 370.1u
SYMBOL res 528 -400 R0
WINDOW 0 16 24 Bottom 1
WINDOW 3 16 88 Top 1
SYMATTR InstName R_rad
SYMATTR Value 62.69
SYMBOL cap 528 -160 R0
WINDOW 0 16 28 Bottom 1
WINDOW 3 16 36 Top 1
SYMATTR InstName C_rad
SYMATTR Value 242.8p
SYMBOL res 528 48 R0
WINDOW 0 16 24 Bottom 1
WINDOW 3 16 88 Top 1
SYMATTR InstName R_gnd
SYMATTR Value 7.2
SYMBOL voltage 1008 32 R0
WINDOW 0 0 24 Bottom 1
WINDOW 3 0 88 Top 1
SYMATTR InstName T_bath
SYMATTR Value -26.295
SYMBOL res 960 -112 R0
WINDOW 0 16 24 Bottom 1
WINDOW 3 16 88 Top 1
SYMATTR InstName R_th
SYMATTR Value 7162.3
SYMBOL cap 1024 -96 R0
WINDOW 0 16 28 Bottom 1
WINDOW 3 16 36 Top 1
SYMATTR InstName C_th
SYMATTR Value 100n
SYMBOL res 400 -512 R0
WINDOW 0 16 24 Bottom 1
WINDOW 3 16 88 Top 1
SYMATTR InstName R_mid
SYMATTR Value 8.29
SYMBOL 1stack_RC 704 -416 R0
WINDOW 0 0 -64 Invisible 1
WINDOW 39 59 76 Bottom 1
SYMATTR InstName X1
SYMATTR SpiceLine M=217/15 N=40 I_c=12m R=202m C=43.39u
SYMBOL 1stack_RC 704 -240 R0
WINDOW 0 0 -64 Invisible 1
WINDOW 39 -127 71 Left 1
SYMATTR InstName X2
SYMATTR SpiceLine M=217/43 N=172 I_c=18m R=622m C=15.13u
SYMBOL 1stack_RC 704 -64 R0
WINDOW 0 0 -64 Invisible 1
WINDOW 39 59 101 Bottom 1
SYMATTR InstName X3
SYMATTR SpiceLine M=217/159 N=636 I_c=18.05m R=2.3 C=4.093u
TEXT 320 -640 Left 2 !.param alpha=140.26 beta=74.429 gamma=2993.7 delta=14.966\n.tran 0 2 0 10u\n.ic V(Na)=0 V(Nb)=0 V(Nc)=0 V(Nd)=0
