Version 4
SHEET 1 880 680
WIRE 160 0 80 0
WIRE 240 0 160 0
WIRE 320 0 240 0
WIRE 320 80 320 0
FLAG 80 -80 0
FLAG 320 80 0
SYMBOL voltage 80 -80 R0
WINDOW 0 0 24 Bottom 1
WINDOW 3 0 44 Top 1
SYMATTR InstName V1
SYMATTR Value AC 1
SYMATTR SpiceLine DC 0
SYMBOL res 160 0 R0
WINDOW 0 0 24 Bottom 1
WINDOW 3 0 44 Top 1
SYMATTR InstName R1
SYMATTR Value 10
SYMBOL ind 240 0 R0
WINDOW 0 0 24 Bottom 1
WINDOW 3 0 44 Top 1
SYMATTR InstName L1
SYMATTR Value 1m
SYMBOL cap 320 0 R0
WINDOW 0 0 24 Bottom 1
WINDOW 3 0 44 Top 1
SYMATTR InstName C1
SYMATTR Value 100n
FLAG 240 0 out
TEXT 0 120 Left 2 !.ac dec 100 1 100k\n.meas AC Gain MAX mag(V(out)) 